Version 4
SHEET 1 880 680
WIRE -528 32 -688 32
WIRE -528 48 -528 32
WIRE -192 96 -336 96
WIRE -688 112 -688 32
WIRE -528 144 -528 128
WIRE -432 144 -528 144
WIRE -336 144 -336 96
WIRE -336 144 -368 144
WIRE -320 144 -336 144
WIRE -192 144 -192 96
WIRE -192 144 -240 144
WIRE -64 144 -192 144
WIRE 64 144 -64 144
WIRE -528 160 -528 144
WIRE -64 160 -64 144
WIRE -192 176 -192 144
WIRE 384 176 320 176
WIRE 496 176 384 176
WIRE 592 176 560 176
WIRE 640 176 592 176
WIRE 384 192 384 176
WIRE -688 208 -688 192
WIRE 592 208 592 176
WIRE -528 256 -528 240
WIRE -192 256 -192 240
WIRE -64 256 -64 240
WIRE 128 288 128 272
WIRE 160 288 160 272
WIRE 160 288 128 288
WIRE 384 288 384 272
WIRE 128 304 128 288
WIRE 592 304 592 288
WIRE 224 352 224 336
WIRE 384 368 384 352
WIRE -480 480 -480 464
WIRE -480 576 -480 560
FLAG 128 304 0
FLAG 224 352 0
FLAG -480 576 0
FLAG -480 464 Vcc
FLAG 160 80 Vcc
FLAG -688 208 0
FLAG 640 176 Vo
FLAG 592 304 0
FLAG 384 368 0
FLAG -528 256 0
FLAG -192 256 0
FLAG -64 256 0
SYMBOL LM380 160 176 R0
SYMATTR InstName U1
SYMBOL cap -368 128 R90
WINDOW 0 0 32 VBottom 2
WINDOW 3 32 32 VTop 2
SYMATTR InstName C1
SYMATTR Value 10µ
SYMBOL res -544 144 R0
SYMATTR InstName R1
SYMATTR Value {Rb}
SYMBOL res -544 32 R0
SYMATTR InstName R2
SYMATTR Value {Ra}
SYMBOL cap 208 272 R0
SYMATTR InstName C2
SYMATTR Value 10µ
SYMBOL voltage -480 464 R0
WINDOW 123 0 0 Left 0
WINDOW 39 0 0 Left 0
SYMATTR InstName V1
SYMATTR Value 12
SYMBOL voltage -688 96 R0
WINDOW 3 24 96 Invisible 2
WINDOW 123 24 124 Left 2
WINDOW 39 0 0 Left 0
SYMATTR InstName V2
SYMATTR Value SINE(0 1 1k 0)
SYMATTR Value2 AC 1 0
SYMBOL cap 560 160 R90
WINDOW 0 0 32 VBottom 2
WINDOW 3 32 32 VTop 2
SYMATTR InstName C3
SYMATTR Value 470µ
SYMBOL res 576 192 R0
SYMATTR InstName R3
SYMATTR Value 4
SYMBOL res 368 176 R0
SYMATTR InstName R4
SYMATTR Value 2.7
SYMBOL cap 400 352 R180
WINDOW 0 24 56 Left 2
WINDOW 3 24 8 Left 2
SYMATTR InstName C5
SYMATTR Value 100n
SYMBOL res -224 128 R90
WINDOW 0 0 56 VBottom 2
WINDOW 3 32 56 VTop 2
SYMATTR InstName R5
SYMATTR Value 10k
SYMBOL cap -176 240 R180
WINDOW 0 24 56 Left 2
WINDOW 3 24 8 Left 2
SYMATTR InstName C4
SYMATTR Value 10n
SYMBOL res -80 144 R0
SYMATTR InstName R6
SYMATTR Value 150k
TEXT -384 488 Left 2 !.param vol={1/50 * 1} Rt=50k Ra={Rt * (1 - vol)} Rb={Rt * vol}
TEXT -384 512 Left 2 !;tran 10m
TEXT -384 536 Left 2 !.inc LM380.lib
TEXT -384 560 Left 2 !.ac dec 10 20 20k
