Version 4
SHEET 1 880 680
WIRE -192 112 -192 96
WIRE 80 128 64 128
WIRE 160 128 80 128
WIRE 400 144 256 144
WIRE 656 144 592 144
WIRE 768 144 736 144
WIRE 80 160 80 128
WIRE 80 160 16 160
WIRE 160 160 112 160
WIRE 16 208 16 160
WIRE 112 208 112 160
WIRE 288 208 112 208
WIRE 400 208 400 144
WIRE 400 208 368 208
WIRE 432 208 400 208
WIRE 544 208 512 208
WIRE -192 224 -192 192
WIRE -96 224 -192 224
WIRE 112 224 112 208
WIRE -96 240 -96 224
WIRE 544 240 544 208
WIRE 592 240 592 144
WIRE 592 240 544 240
WIRE 608 240 592 240
WIRE -192 256 -192 224
WIRE 768 256 768 144
WIRE 768 256 704 256
WIRE 816 256 768 256
WIRE 608 272 544 272
WIRE 112 320 112 304
WIRE 288 320 112 320
WIRE 400 320 368 320
WIRE 432 320 400 320
WIRE 544 320 544 272
WIRE 544 320 512 320
WIRE 16 336 16 288
WIRE 80 336 16 336
WIRE -192 352 -192 336
WIRE 112 368 112 320
WIRE 160 368 112 368
WIRE 544 368 544 320
WIRE 400 384 400 320
WIRE 400 384 256 384
WIRE 80 400 80 336
WIRE 80 400 64 400
WIRE 160 400 80 400
WIRE 544 464 544 448
FLAG 544 464 0
FLAG 64 128 Vin-
FLAG 64 400 Vin+
FLAG 816 256 Vu
FLAG -96 240 0
FLAG -192 96 +15
FLAG -192 352 -15
FLAG 208 416 -15
FLAG 208 176 -15
FLAG 656 288 -15
FLAG 208 112 +15
FLAG 208 352 +15
FLAG 656 224 +15
SYMBOL uA741 208 144 M180
SYMATTR InstName U1
SYMBOL uA741 208 384 R0
SYMATTR InstName U2
SYMBOL res 96 208 R0
SYMATTR InstName R2
SYMATTR Value 10k
SYMBOL res 384 192 R90
WINDOW 0 0 56 VBottom 2
WINDOW 3 32 56 VTop 2
SYMATTR InstName R1
SYMATTR Value 5k
SYMBOL res 384 304 R90
WINDOW 0 0 56 VBottom 2
WINDOW 3 32 56 VTop 2
SYMATTR InstName R3
SYMATTR Value 5k
SYMBOL res 528 192 R90
WINDOW 0 0 56 VBottom 2
WINDOW 3 32 56 VTop 2
SYMATTR InstName R4
SYMATTR Value 200k
SYMBOL res 528 304 R90
WINDOW 0 0 56 VBottom 2
WINDOW 3 32 56 VTop 2
SYMATTR InstName R5
SYMATTR Value 200k
SYMBOL res 752 128 R90
WINDOW 0 0 56 VBottom 2
WINDOW 3 32 56 VTop 2
SYMATTR InstName R6
SYMATTR Value 100k
SYMBOL res 560 464 R180
WINDOW 0 36 76 Left 2
WINDOW 3 36 40 Left 2
SYMATTR InstName R7
SYMATTR Value 100k
SYMBOL uA741 656 256 R0
SYMATTR InstName U3
SYMBOL voltage -192 96 R0
WINDOW 123 0 0 Left 0
WINDOW 39 0 0 Left 0
SYMATTR InstName V1
SYMATTR Value +15
SYMBOL voltage -192 240 R0
WINDOW 123 0 0 Left 0
WINDOW 39 0 0 Left 0
SYMATTR InstName V2
SYMATTR Value -15
SYMBOL voltage 16 192 R0
WINDOW 123 0 0 Left 0
WINDOW 39 0 0 Left 0
SYMATTR InstName Vs
SYMATTR Value ""
